data_image0
_cell_length_a       12.9824
_cell_length_b       12.9824
_cell_length_c       20.744
_cell_angle_alpha    90
_cell_angle_beta     90
_cell_angle_gamma    120

_symmetry_space_group_name_H-M    "P 1"
_symmetry_int_tables_number       1

loop_
  _symmetry_equiv_pos_as_xyz
  'x, y, z'

loop_
  _atom_site_label
  _atom_site_occupancy
  _atom_site_fract_x
  _atom_site_fract_y
  _atom_site_fract_z
  _atom_site_thermal_displace_type
  _atom_site_B_iso_or_equiv
  _atom_site_type_symbol
  N1       1.0000 0.00000  0.00000  0.00000  Biso   1.000  N
  Ga1      1.0000 0.08333  0.16667  0.02986  Biso   1.000  Ga
  N2       1.0000 0.08333  0.16667  0.12500  Biso   1.000  N
  Ga2      1.0000 0.00000  0.00000  0.15486  Biso   1.000  Ga
  N3       1.0000 0.00000  0.00000  0.25000  Biso   1.000  N
  Ga3      1.0000 0.08333  0.16667  0.27986  Biso   1.000  Ga
  N4       1.0000 0.08333  0.16667  0.37500  Biso   1.000  N
  Ga4      1.0000 0.00000  0.00000  0.40486  Biso   1.000  Ga
  N5       1.0000 0.00000  0.00000  0.50000  Biso   1.000  N
  Ga5      1.0000 0.08333  0.16667  0.52986  Biso   1.000  Ga
  N6       1.0000 0.08333  0.16667  0.62500  Biso   1.000  N
  Ga6      1.0000 0.00000  0.00000  0.65486  Biso   1.000  Ga
  N7       1.0000 0.00000  0.00000  0.75000  Biso   1.000  N
  Ga7      1.0000 0.08333  0.16667  0.77986  Biso   1.000  Ga
  N8       1.0000 0.08333  0.16667  0.87500  Biso   1.000  N
  Ga8      1.0000 0.00000  0.00000  0.90486  Biso   1.000  Ga
  N9       1.0000 0.00000  0.25000  0.00000  Biso   1.000  N
  Ga9      1.0000 0.08333  0.41667  0.02986  Biso   1.000  Ga
  N10      1.0000 0.08333  0.41667  0.12500  Biso   1.000  N
  Ga10     1.0000 0.00000  0.25000  0.15486  Biso   1.000  Ga
  N11      1.0000 0.00000  0.25000  0.25000  Biso   1.000  N
  Ga11     1.0000 0.08333  0.41667  0.27986  Biso   1.000  Ga
  N12      1.0000 0.08333  0.41667  0.37500  Biso   1.000  N
  Ga12     1.0000 0.00000  0.25000  0.40486  Biso   1.000  Ga
  N13      1.0000 0.00000  0.25000  0.50000  Biso   1.000  N
  Ga13     1.0000 0.08333  0.41667  0.52986  Biso   1.000  Ga
  N14      1.0000 0.08333  0.41667  0.62500  Biso   1.000  N
  Ga14     1.0000 0.00000  0.25000  0.65486  Biso   1.000  Ga
  N15      1.0000 0.00000  0.25000  0.75000  Biso   1.000  N
  Ga15     1.0000 0.08333  0.41667  0.77986  Biso   1.000  Ga
  N16      1.0000 0.08333  0.41667  0.87500  Biso   1.000  N
  Ga16     1.0000 0.00000  0.25000  0.90486  Biso   1.000  Ga
  N17      1.0000 0.00000  0.50000  0.00000  Biso   1.000  N
  Ga17     1.0000 0.08333  0.66667  0.02986  Biso   1.000  Ga
  N18      1.0000 0.08333  0.66667  0.12500  Biso   1.000  N
  Ga18     1.0000 0.00000  0.50000  0.15486  Biso   1.000  Ga
  N19      1.0000 0.00000  0.50000  0.25000  Biso   1.000  N
  Ga19     1.0000 0.08333  0.66667  0.27986  Biso   1.000  Ga
  N20      1.0000 0.08333  0.66667  0.37500  Biso   1.000  N
  Ga20     1.0000 0.00000  0.50000  0.40486  Biso   1.000  Ga
  N21      1.0000 0.00000  0.50000  0.50000  Biso   1.000  N
  Ga21     1.0000 0.08333  0.66667  0.52986  Biso   1.000  Ga
  N22      1.0000 0.08333  0.66667  0.62500  Biso   1.000  N
  Ga22     1.0000 0.00000  0.50000  0.65486  Biso   1.000  Ga
  N23      1.0000 0.00000  0.50000  0.75000  Biso   1.000  N
  Ga23     1.0000 0.08333  0.66667  0.77986  Biso   1.000  Ga
  N24      1.0000 0.08333  0.66667  0.87500  Biso   1.000  N
  Ga24     1.0000 0.00000  0.50000  0.90486  Biso   1.000  Ga
  N25      1.0000 0.00000  0.75000  0.00000  Biso   1.000  N
  Ga25     1.0000 0.08333  0.91667  0.02986  Biso   1.000  Ga
  N26      1.0000 0.08333  0.91667  0.12500  Biso   1.000  N
  Ga26     1.0000 0.00000  0.75000  0.15486  Biso   1.000  Ga
  N27      1.0000 0.00000  0.75000  0.25000  Biso   1.000  N
  Ga27     1.0000 0.08333  0.91667  0.27986  Biso   1.000  Ga
  N28      1.0000 0.08333  0.91667  0.37500  Biso   1.000  N
  Ga28     1.0000 0.00000  0.75000  0.40486  Biso   1.000  Ga
  N29      1.0000 0.00000  0.75000  0.50000  Biso   1.000  N
  Ga29     1.0000 0.08333  0.91667  0.52986  Biso   1.000  Ga
  N30      1.0000 0.08333  0.91667  0.62500  Biso   1.000  N
  Ga30     1.0000 0.00000  0.75000  0.65486  Biso   1.000  Ga
  N31      1.0000 0.00000  0.75000  0.75000  Biso   1.000  N
  Ga31     1.0000 0.08333  0.91667  0.77986  Biso   1.000  Ga
  N32      1.0000 0.08333  0.91667  0.87500  Biso   1.000  N
  Ga32     1.0000 0.00000  0.75000  0.90486  Biso   1.000  Ga
  N33      1.0000 0.25000  0.00000  0.00000  Biso   1.000  N
  Ga33     1.0000 0.33333  0.16667  0.02986  Biso   1.000  Ga
  N34      1.0000 0.33333  0.16667  0.12500  Biso   1.000  N
  Ga34     1.0000 0.25000  0.00000  0.15486  Biso   1.000  Ga
  N35      1.0000 0.25000  0.00000  0.25000  Biso   1.000  N
  Ga35     1.0000 0.33333  0.16667  0.27986  Biso   1.000  Ga
  N36      1.0000 0.33333  0.16667  0.37500  Biso   1.000  N
  Ga36     1.0000 0.25000  0.00000  0.40486  Biso   1.000  Ga
  N37      1.0000 0.25000  0.00000  0.50000  Biso   1.000  N
  Ga37     1.0000 0.33333  0.16667  0.52986  Biso   1.000  Ga
  N38      1.0000 0.33333  0.16667  0.62500  Biso   1.000  N
  Ga38     1.0000 0.25000  0.00000  0.65486  Biso   1.000  Ga
  N39      1.0000 0.25000  0.00000  0.75000  Biso   1.000  N
  Ga39     1.0000 0.33333  0.16667  0.77986  Biso   1.000  Ga
  N40      1.0000 0.33333  0.16667  0.87500  Biso   1.000  N
  Ga40     1.0000 0.25000  0.00000  0.90486  Biso   1.000  Ga
  N41      1.0000 0.25000  0.25000  0.00000  Biso   1.000  N
  Ga41     1.0000 0.33333  0.41667  0.02986  Biso   1.000  Ga
  N42      1.0000 0.33333  0.41667  0.12500  Biso   1.000  N
  Ga42     1.0000 0.25000  0.25000  0.15486  Biso   1.000  Ga
  N43      1.0000 0.25000  0.25000  0.25000  Biso   1.000  N
  Ga43     1.0000 0.33333  0.41667  0.27986  Biso   1.000  Ga
  N44      1.0000 0.33333  0.41667  0.37500  Biso   1.000  N
  Ga44     1.0000 0.25000  0.25000  0.40486  Biso   1.000  Ga
  N45      1.0000 0.25000  0.25000  0.50000  Biso   1.000  N
  Ga45     1.0000 0.33333  0.41667  0.52986  Biso   1.000  Ga
  N46      1.0000 0.33333  0.41667  0.62500  Biso   1.000  N
  Ga46     1.0000 0.25000  0.25000  0.65486  Biso   1.000  Ga
  N47      1.0000 0.25000  0.25000  0.75000  Biso   1.000  N
  Ga47     1.0000 0.33333  0.41667  0.77986  Biso   1.000  Ga
  N48      1.0000 0.33333  0.41667  0.87500  Biso   1.000  N
  Ga48     1.0000 0.25000  0.25000  0.90486  Biso   1.000  Ga
  N49      1.0000 0.25000  0.50000  0.00000  Biso   1.000  N
  Ga49     1.0000 0.33333  0.66667  0.02986  Biso   1.000  Ga
  N50      1.0000 0.33333  0.66667  0.12500  Biso   1.000  N
  Ga50     1.0000 0.25000  0.50000  0.15486  Biso   1.000  Ga
  N51      1.0000 0.25000  0.50000  0.25000  Biso   1.000  N
  Ga51     1.0000 0.33333  0.66667  0.27986  Biso   1.000  Ga
  N52      1.0000 0.33333  0.66667  0.37500  Biso   1.000  N
  Ga52     1.0000 0.25000  0.50000  0.40486  Biso   1.000  Ga
  N53      1.0000 0.25000  0.50000  0.50000  Biso   1.000  N
  Ga53     1.0000 0.33333  0.66667  0.52986  Biso   1.000  Ga
  N54      1.0000 0.33333  0.66667  0.62500  Biso   1.000  N
  Ga54     1.0000 0.25000  0.50000  0.65486  Biso   1.000  Ga
  N55      1.0000 0.25000  0.50000  0.75000  Biso   1.000  N
  Ga55     1.0000 0.33333  0.66667  0.77986  Biso   1.000  Ga
  N56      1.0000 0.33333  0.66667  0.87500  Biso   1.000  N
  Ga56     1.0000 0.25000  0.50000  0.90486  Biso   1.000  Ga
  N57      1.0000 0.25000  0.75000  0.00000  Biso   1.000  N
  Ga57     1.0000 0.33333  0.91667  0.02986  Biso   1.000  Ga
  N58      1.0000 0.33333  0.91667  0.12500  Biso   1.000  N
  Ga58     1.0000 0.25000  0.75000  0.15486  Biso   1.000  Ga
  N59      1.0000 0.25000  0.75000  0.25000  Biso   1.000  N
  Ga59     1.0000 0.33333  0.91667  0.27986  Biso   1.000  Ga
  N60      1.0000 0.33333  0.91667  0.37500  Biso   1.000  N
  Ga60     1.0000 0.25000  0.75000  0.40486  Biso   1.000  Ga
  N61      1.0000 0.25000  0.75000  0.50000  Biso   1.000  N
  Ga61     1.0000 0.33333  0.91667  0.52986  Biso   1.000  Ga
  N62      1.0000 0.33333  0.91667  0.62500  Biso   1.000  N
  Ga62     1.0000 0.25000  0.75000  0.65486  Biso   1.000  Ga
  N63      1.0000 0.25000  0.75000  0.75000  Biso   1.000  N
  Ga63     1.0000 0.33333  0.91667  0.77986  Biso   1.000  Ga
  N64      1.0000 0.33333  0.91667  0.87500  Biso   1.000  N
  Ga64     1.0000 0.25000  0.75000  0.90486  Biso   1.000  Ga
  N65      1.0000 0.50000  0.00000  0.00000  Biso   1.000  N
  Ga65     1.0000 0.58333  0.16667  0.02986  Biso   1.000  Ga
  N66      1.0000 0.58333  0.16667  0.12500  Biso   1.000  N
  Ga66     1.0000 0.50000  0.00000  0.15486  Biso   1.000  Ga
  N67      1.0000 0.50000  0.00000  0.25000  Biso   1.000  N
  Ga67     1.0000 0.58333  0.16667  0.27986  Biso   1.000  Ga
  N68      1.0000 0.58333  0.16667  0.37500  Biso   1.000  N
  Ga68     1.0000 0.50000  0.00000  0.40486  Biso   1.000  Ga
  N69      1.0000 0.50000  0.00000  0.50000  Biso   1.000  N
  Ga69     1.0000 0.58333  0.16667  0.52986  Biso   1.000  Ga
  N70      1.0000 0.58333  0.16667  0.62500  Biso   1.000  N
  Ga70     1.0000 0.50000  0.00000  0.65486  Biso   1.000  Ga
  N71      1.0000 0.50000  0.00000  0.75000  Biso   1.000  N
  Ga71     1.0000 0.58333  0.16667  0.77986  Biso   1.000  Ga
  N72      1.0000 0.58333  0.16667  0.87500  Biso   1.000  N
  Ga72     1.0000 0.50000  0.00000  0.90486  Biso   1.000  Ga
  N73      1.0000 0.50000  0.25000  0.00000  Biso   1.000  N
  Ga73     1.0000 0.58333  0.41667  0.02986  Biso   1.000  Ga
  N74      1.0000 0.58333  0.41667  0.12500  Biso   1.000  N
  Ga74     1.0000 0.50000  0.25000  0.15486  Biso   1.000  Ga
  N75      1.0000 0.50000  0.25000  0.25000  Biso   1.000  N
  Ga75     1.0000 0.58333  0.41667  0.27986  Biso   1.000  Ga
  N76      1.0000 0.58333  0.41667  0.37500  Biso   1.000  N
  Ga76     1.0000 0.50000  0.25000  0.40486  Biso   1.000  Ga
  N77      1.0000 0.50000  0.25000  0.50000  Biso   1.000  N
  Ga77     1.0000 0.58333  0.41667  0.52986  Biso   1.000  Ga
  N78      1.0000 0.58333  0.41667  0.62500  Biso   1.000  N
  Ga78     1.0000 0.50000  0.25000  0.65486  Biso   1.000  Ga
  N79      1.0000 0.50000  0.25000  0.75000  Biso   1.000  N
  Ga79     1.0000 0.58333  0.41667  0.77986  Biso   1.000  Ga
  N80      1.0000 0.58333  0.41667  0.87500  Biso   1.000  N
  Ga80     1.0000 0.50000  0.25000  0.90486  Biso   1.000  Ga
  N81      1.0000 0.50000  0.50000  0.00000  Biso   1.000  N
  Ga81     1.0000 0.58333  0.66667  0.02986  Biso   1.000  Ga
  N82      1.0000 0.58333  0.66667  0.12500  Biso   1.000  N
  Ga82     1.0000 0.50000  0.50000  0.15486  Biso   1.000  Ga
  N83      1.0000 0.50000  0.50000  0.25000  Biso   1.000  N
  Ga83     1.0000 0.58333  0.66667  0.27986  Biso   1.000  Ga
  N84      1.0000 0.58333  0.66667  0.37500  Biso   1.000  N
  Ga84     1.0000 0.50000  0.50000  0.40486  Biso   1.000  Ga
  N85      1.0000 0.50000  0.50000  0.50000  Biso   1.000  N
  Ga85     1.0000 0.58333  0.66667  0.52986  Biso   1.000  Ga
  N86      1.0000 0.58333  0.66667  0.62500  Biso   1.000  N
  Ga86     1.0000 0.50000  0.50000  0.65486  Biso   1.000  Ga
  N87      1.0000 0.50000  0.50000  0.75000  Biso   1.000  N
  Ga87     1.0000 0.58333  0.66667  0.77986  Biso   1.000  Ga
  N88      1.0000 0.58333  0.66667  0.87500  Biso   1.000  N
  Ga88     1.0000 0.50000  0.50000  0.90486  Biso   1.000  Ga
  N89      1.0000 0.50000  0.75000  0.00000  Biso   1.000  N
  Ga89     1.0000 0.58333  0.91667  0.02986  Biso   1.000  Ga
  N90      1.0000 0.58333  0.91667  0.12500  Biso   1.000  N
  Ga90     1.0000 0.50000  0.75000  0.15486  Biso   1.000  Ga
  N91      1.0000 0.50000  0.75000  0.25000  Biso   1.000  N
  Ga91     1.0000 0.58333  0.91667  0.27986  Biso   1.000  Ga
  N92      1.0000 0.58333  0.91667  0.37500  Biso   1.000  N
  Ga92     1.0000 0.50000  0.75000  0.40486  Biso   1.000  Ga
  N93      1.0000 0.50000  0.75000  0.50000  Biso   1.000  N
  Ga93     1.0000 0.58333  0.91667  0.52986  Biso   1.000  Ga
  N94      1.0000 0.58333  0.91667  0.62500  Biso   1.000  N
  Ga94     1.0000 0.50000  0.75000  0.65486  Biso   1.000  Ga
  N95      1.0000 0.50000  0.75000  0.75000  Biso   1.000  N
  Ga95     1.0000 0.58333  0.91667  0.77986  Biso   1.000  Ga
  N96      1.0000 0.58333  0.91667  0.87500  Biso   1.000  N
  Ga96     1.0000 0.50000  0.75000  0.90486  Biso   1.000  Ga
  N97      1.0000 0.75000  0.00000  0.00000  Biso   1.000  N
  Ga97     1.0000 0.83333  0.16667  0.02986  Biso   1.000  Ga
  N98      1.0000 0.83333  0.16667  0.12500  Biso   1.000  N
  Ga98     1.0000 0.75000  0.00000  0.15486  Biso   1.000  Ga
  N99      1.0000 0.75000  0.00000  0.25000  Biso   1.000  N
  Ga99     1.0000 0.83333  0.16667  0.27986  Biso   1.000  Ga
  N100     1.0000 0.83333  0.16667  0.37500  Biso   1.000  N
  Ga100    1.0000 0.75000  0.00000  0.40486  Biso   1.000  Ga
  N101     1.0000 0.75000  0.00000  0.50000  Biso   1.000  N
  Ga101    1.0000 0.83333  0.16667  0.52986  Biso   1.000  Ga
  N102     1.0000 0.83333  0.16667  0.62500  Biso   1.000  N
  Ga102    1.0000 0.75000  0.00000  0.65486  Biso   1.000  Ga
  N103     1.0000 0.75000  0.00000  0.75000  Biso   1.000  N
  Ga103    1.0000 0.83333  0.16667  0.77986  Biso   1.000  Ga
  N104     1.0000 0.83333  0.16667  0.87500  Biso   1.000  N
  Ga104    1.0000 0.75000  0.00000  0.90486  Biso   1.000  Ga
  N105     1.0000 0.75000  0.25000  0.00000  Biso   1.000  N
  Ga105    1.0000 0.83333  0.41667  0.02986  Biso   1.000  Ga
  N106     1.0000 0.83333  0.41667  0.12500  Biso   1.000  N
  Ga106    1.0000 0.75000  0.25000  0.15486  Biso   1.000  Ga
  N107     1.0000 0.75000  0.25000  0.25000  Biso   1.000  N
  Ga107    1.0000 0.83333  0.41667  0.27986  Biso   1.000  Ga
  N108     1.0000 0.83333  0.41667  0.37500  Biso   1.000  N
  Ga108    1.0000 0.75000  0.25000  0.40486  Biso   1.000  Ga
  N109     1.0000 0.75000  0.25000  0.50000  Biso   1.000  N
  Ga109    1.0000 0.83333  0.41667  0.52986  Biso   1.000  Ga
  N110     1.0000 0.83333  0.41667  0.62500  Biso   1.000  N
  Ga110    1.0000 0.75000  0.25000  0.65486  Biso   1.000  Ga
  N111     1.0000 0.75000  0.25000  0.75000  Biso   1.000  N
  Ga111    1.0000 0.83333  0.41667  0.77986  Biso   1.000  Ga
  N112     1.0000 0.83333  0.41667  0.87500  Biso   1.000  N
  Ga112    1.0000 0.75000  0.25000  0.90486  Biso   1.000  Ga
  N113     1.0000 0.75000  0.50000  0.00000  Biso   1.000  N
  Ga113    1.0000 0.83333  0.66667  0.02986  Biso   1.000  Ga
  N114     1.0000 0.83333  0.66667  0.12500  Biso   1.000  N
  Ga114    1.0000 0.75000  0.50000  0.15486  Biso   1.000  Ga
  N115     1.0000 0.75000  0.50000  0.25000  Biso   1.000  N
  Ga115    1.0000 0.83333  0.66667  0.27986  Biso   1.000  Ga
  N116     1.0000 0.83333  0.66667  0.37500  Biso   1.000  N
  Ga116    1.0000 0.75000  0.50000  0.40486  Biso   1.000  Ga
  N117     1.0000 0.75000  0.50000  0.50000  Biso   1.000  N
  Ga117    1.0000 0.83333  0.66667  0.52986  Biso   1.000  Ga
  N118     1.0000 0.83333  0.66667  0.62500  Biso   1.000  N
  Ga118    1.0000 0.75000  0.50000  0.65486  Biso   1.000  Ga
  N119     1.0000 0.75000  0.50000  0.75000  Biso   1.000  N
  Ga119    1.0000 0.83333  0.66667  0.77986  Biso   1.000  Ga
  N120     1.0000 0.83333  0.66667  0.87500  Biso   1.000  N
  Ga120    1.0000 0.75000  0.50000  0.90486  Biso   1.000  Ga
  N121     1.0000 0.75000  0.75000  0.00000  Biso   1.000  N
  Ga121    1.0000 0.83333  0.91667  0.02986  Biso   1.000  Ga
  N122     1.0000 0.83333  0.91667  0.12500  Biso   1.000  N
  Ga122    1.0000 0.75000  0.75000  0.15486  Biso   1.000  Ga
  N123     1.0000 0.75000  0.75000  0.25000  Biso   1.000  N
  Ga123    1.0000 0.83333  0.91667  0.27986  Biso   1.000  Ga
  N124     1.0000 0.83333  0.91667  0.37500  Biso   1.000  N
  Ga124    1.0000 0.75000  0.75000  0.40486  Biso   1.000  Ga
  N125     1.0000 0.75000  0.75000  0.50000  Biso   1.000  N
  Ga125    1.0000 0.83333  0.91667  0.52986  Biso   1.000  Ga
  N126     1.0000 0.83333  0.91667  0.62500  Biso   1.000  N
  Ga126    1.0000 0.75000  0.75000  0.65486  Biso   1.000  Ga
  N127     1.0000 0.75000  0.75000  0.75000  Biso   1.000  N
  Ga127    1.0000 0.83333  0.91667  0.77986  Biso   1.000  Ga
  N128     1.0000 0.83333  0.91667  0.87500  Biso   1.000  N
  Ga128    1.0000 0.75000  0.75000  0.90486  Biso   1.000  Ga
