data_image0
_cell_length_a       9.558
_cell_length_b       9.558
_cell_length_c       5.186
_cell_angle_alpha    90
_cell_angle_beta     90
_cell_angle_gamma    120

_symmetry_space_group_name_H-M    "P 1"
_symmetry_int_tables_number       1

loop_
  _symmetry_equiv_pos_as_xyz
  'x, y, z'

loop_
  _atom_site_label
  _atom_site_occupancy
  _atom_site_fract_x
  _atom_site_fract_y
  _atom_site_fract_z
  _atom_site_thermal_displace_type
  _atom_site_B_iso_or_equiv
  _atom_site_type_symbol
  Ga1      1.0000 0.00000  0.00000  0.00000  Biso   1.000  Ga
  N1       1.0000 0.11111  0.22222  0.12419  Biso   1.000  N
  Ga2      1.0000 0.11111  0.22222  0.50000  Biso   1.000  Ga
  N2       1.0000 0.00000  0.00000  0.62419  Biso   1.000  N
  Ga3      1.0000 0.00000  0.33333  0.00000  Biso   1.000  Ga
  N3       1.0000 0.11111  0.55556  0.12419  Biso   1.000  N
  Ga4      1.0000 0.11111  0.55556  0.50000  Biso   1.000  Ga
  N4       1.0000 0.00000  0.33333  0.62419  Biso   1.000  N
  Ga5      1.0000 0.00000  0.66667  0.00000  Biso   1.000  Ga
  N5       1.0000 0.11111  0.88889  0.12419  Biso   1.000  N
  Ga6      1.0000 0.11111  0.88889  0.50000  Biso   1.000  Ga
  N6       1.0000 0.00000  0.66667  0.62419  Biso   1.000  N
  Ga7      1.0000 0.33333  0.00000  0.00000  Biso   1.000  Ga
  N7       1.0000 0.44444  0.22222  0.12419  Biso   1.000  N
  Ga8      1.0000 0.44444  0.22222  0.50000  Biso   1.000  Ga
  N8       1.0000 0.33333  0.00000  0.62419  Biso   1.000  N
  Ga9      1.0000 0.33333  0.33333  0.00000  Biso   1.000  Ga
  N9       1.0000 0.44444  0.55556  0.12419  Biso   1.000  N
  Ga10     1.0000 0.44444  0.55556  0.50000  Biso   1.000  Ga
  N10      1.0000 0.33333  0.33333  0.62419  Biso   1.000  N
  Ga11     1.0000 0.33333  0.66667  0.00000  Biso   1.000  Ga
  N11      1.0000 0.44444  0.88889  0.12419  Biso   1.000  N
  Ga12     1.0000 0.44444  0.88889  0.50000  Biso   1.000  Ga
  N12      1.0000 0.33333  0.66667  0.62419  Biso   1.000  N
  Ga13     1.0000 0.66667  0.00000  0.00000  Biso   1.000  Ga
  N13      1.0000 0.77778  0.22222  0.12419  Biso   1.000  N
  Ga14     1.0000 0.77778  0.22222  0.50000  Biso   1.000  Ga
  N14      1.0000 0.66667  0.00000  0.62419  Biso   1.000  N
  Ga15     1.0000 0.66667  0.33333  0.00000  Biso   1.000  Ga
  N15      1.0000 0.77778  0.55556  0.12419  Biso   1.000  N
  Ga16     1.0000 0.77778  0.55556  0.50000  Biso   1.000  Ga
  N16      1.0000 0.66667  0.33333  0.62419  Biso   1.000  N
  Ga17     1.0000 0.66667  0.66667  0.00000  Biso   1.000  Ga
  N17      1.0000 0.77778  0.88889  0.12419  Biso   1.000  N
  Ga18     1.0000 0.77778  0.88889  0.50000  Biso   1.000  Ga
  N18      1.0000 0.66667  0.66667  0.62419  Biso   1.000  N
