data_image0
_cell_length_a       12.744
_cell_length_b       12.744
_cell_length_c       10.372
_cell_angle_alpha    90
_cell_angle_beta     90
_cell_angle_gamma    120

_symmetry_space_group_name_H-M    "P 1"
_symmetry_int_tables_number       1

loop_
  _symmetry_equiv_pos_as_xyz
  'x, y, z'

loop_
  _atom_site_label
  _atom_site_occupancy
  _atom_site_fract_x
  _atom_site_fract_y
  _atom_site_fract_z
  _atom_site_thermal_displace_type
  _atom_site_B_iso_or_equiv
  _atom_site_type_symbol
  Ga1      1.0000 0.00000  0.00000  0.00000  Biso   1.000  Ga
  N1       1.0000 0.08333  0.16667  0.06210  Biso   1.000  N
  Ga2      1.0000 0.08333  0.16667  0.25000  Biso   1.000  Ga
  N2       1.0000 0.00000  0.00000  0.31210  Biso   1.000  N
  Ga3      1.0000 0.00000  0.00000  0.50000  Biso   1.000  Ga
  N3       1.0000 0.08333  0.16667  0.56210  Biso   1.000  N
  Ga4      1.0000 0.08333  0.16667  0.75000  Biso   1.000  Ga
  N4       1.0000 0.00000  0.00000  0.81210  Biso   1.000  N
  Ga5      1.0000 0.00000  0.25000  0.00000  Biso   1.000  Ga
  N5       1.0000 0.08333  0.41667  0.06210  Biso   1.000  N
  Ga6      1.0000 0.08333  0.41667  0.25000  Biso   1.000  Ga
  N6       1.0000 0.00000  0.25000  0.31210  Biso   1.000  N
  Ga7      1.0000 0.00000  0.25000  0.50000  Biso   1.000  Ga
  N7       1.0000 0.08333  0.41667  0.56210  Biso   1.000  N
  Ga8      1.0000 0.08333  0.41667  0.75000  Biso   1.000  Ga
  N8       1.0000 0.00000  0.25000  0.81210  Biso   1.000  N
  Ga9      1.0000 0.00000  0.50000  0.00000  Biso   1.000  Ga
  N9       1.0000 0.08333  0.66667  0.06210  Biso   1.000  N
  Ga10     1.0000 0.08333  0.66667  0.25000  Biso   1.000  Ga
  N10      1.0000 0.00000  0.50000  0.31210  Biso   1.000  N
  Ga11     1.0000 0.00000  0.50000  0.50000  Biso   1.000  Ga
  N11      1.0000 0.08333  0.66667  0.56210  Biso   1.000  N
  Ga12     1.0000 0.08333  0.66667  0.75000  Biso   1.000  Ga
  N12      1.0000 0.00000  0.50000  0.81210  Biso   1.000  N
  Ga13     1.0000 0.00000  0.75000  0.00000  Biso   1.000  Ga
  N13      1.0000 0.08333  0.91667  0.06210  Biso   1.000  N
  Ga14     1.0000 0.08333  0.91667  0.25000  Biso   1.000  Ga
  N14      1.0000 0.00000  0.75000  0.31210  Biso   1.000  N
  Ga15     1.0000 0.00000  0.75000  0.50000  Biso   1.000  Ga
  N15      1.0000 0.08333  0.91667  0.56210  Biso   1.000  N
  Ga16     1.0000 0.08333  0.91667  0.75000  Biso   1.000  Ga
  N16      1.0000 0.00000  0.75000  0.81210  Biso   1.000  N
  Ga17     1.0000 0.25000  0.00000  0.00000  Biso   1.000  Ga
  N17      1.0000 0.33333  0.16667  0.06210  Biso   1.000  N
  Ga18     1.0000 0.33333  0.16667  0.25000  Biso   1.000  Ga
  N18      1.0000 0.25000  0.00000  0.31210  Biso   1.000  N
  Ga19     1.0000 0.25000  0.00000  0.50000  Biso   1.000  Ga
  N19      1.0000 0.33333  0.16667  0.56210  Biso   1.000  N
  Ga20     1.0000 0.33333  0.16667  0.75000  Biso   1.000  Ga
  N20      1.0000 0.25000  0.00000  0.81210  Biso   1.000  N
  Ga21     1.0000 0.25000  0.25000  0.00000  Biso   1.000  Ga
  N21      1.0000 0.33333  0.41667  0.06210  Biso   1.000  N
  Ga22     1.0000 0.33333  0.41667  0.25000  Biso   1.000  Ga
  N22      1.0000 0.25000  0.25000  0.31210  Biso   1.000  N
  Ga23     1.0000 0.25000  0.25000  0.50000  Biso   1.000  Ga
  N23      1.0000 0.33333  0.41667  0.56210  Biso   1.000  N
  Ga24     1.0000 0.33333  0.41667  0.75000  Biso   1.000  Ga
  N24      1.0000 0.25000  0.25000  0.81210  Biso   1.000  N
  Ga25     1.0000 0.25000  0.50000  0.00000  Biso   1.000  Ga
  N25      1.0000 0.33333  0.66667  0.06210  Biso   1.000  N
  Ga26     1.0000 0.33333  0.66667  0.25000  Biso   1.000  Ga
  N26      1.0000 0.25000  0.50000  0.31210  Biso   1.000  N
  Ga27     1.0000 0.25000  0.50000  0.50000  Biso   1.000  Ga
  N27      1.0000 0.33333  0.66667  0.56210  Biso   1.000  N
  Ga28     1.0000 0.33333  0.66667  0.75000  Biso   1.000  Ga
  N28      1.0000 0.25000  0.50000  0.81210  Biso   1.000  N
  Ga29     1.0000 0.25000  0.75000  0.00000  Biso   1.000  Ga
  N29      1.0000 0.33333  0.91667  0.06210  Biso   1.000  N
  Ga30     1.0000 0.33333  0.91667  0.25000  Biso   1.000  Ga
  N30      1.0000 0.25000  0.75000  0.31210  Biso   1.000  N
  Ga31     1.0000 0.25000  0.75000  0.50000  Biso   1.000  Ga
  N31      1.0000 0.33333  0.91667  0.56210  Biso   1.000  N
  Ga32     1.0000 0.33333  0.91667  0.75000  Biso   1.000  Ga
  N32      1.0000 0.25000  0.75000  0.81210  Biso   1.000  N
  Ga33     1.0000 0.50000  0.00000  0.00000  Biso   1.000  Ga
  N33      1.0000 0.58333  0.16667  0.06210  Biso   1.000  N
  Ga34     1.0000 0.58333  0.16667  0.25000  Biso   1.000  Ga
  N34      1.0000 0.50000  0.00000  0.31210  Biso   1.000  N
  Ga35     1.0000 0.50000  0.00000  0.50000  Biso   1.000  Ga
  N35      1.0000 0.58333  0.16667  0.56210  Biso   1.000  N
  Ga36     1.0000 0.58333  0.16667  0.75000  Biso   1.000  Ga
  N36      1.0000 0.50000  0.00000  0.81210  Biso   1.000  N
  Ga37     1.0000 0.50000  0.25000  0.00000  Biso   1.000  Ga
  N37      1.0000 0.58333  0.41667  0.06210  Biso   1.000  N
  Ga38     1.0000 0.58333  0.41667  0.25000  Biso   1.000  Ga
  N38      1.0000 0.50000  0.25000  0.31210  Biso   1.000  N
  Ga39     1.0000 0.50000  0.25000  0.50000  Biso   1.000  Ga
  N39      1.0000 0.58333  0.41667  0.56210  Biso   1.000  N
  Ga40     1.0000 0.58333  0.41667  0.75000  Biso   1.000  Ga
  N40      1.0000 0.50000  0.25000  0.81210  Biso   1.000  N
  Ga41     1.0000 0.50000  0.50000  0.00000  Biso   1.000  Ga
  N41      1.0000 0.58333  0.66667  0.06210  Biso   1.000  N
  Ga42     1.0000 0.58333  0.66667  0.25000  Biso   1.000  Ga
  N42      1.0000 0.50000  0.50000  0.31210  Biso   1.000  N
  Ga43     1.0000 0.50000  0.50000  0.50000  Biso   1.000  Ga
  N43      1.0000 0.58333  0.66667  0.56210  Biso   1.000  N
  Ga44     1.0000 0.58333  0.66667  0.75000  Biso   1.000  Ga
  N44      1.0000 0.50000  0.50000  0.81210  Biso   1.000  N
  Ga45     1.0000 0.50000  0.75000  0.00000  Biso   1.000  Ga
  N45      1.0000 0.58333  0.91667  0.06210  Biso   1.000  N
  Ga46     1.0000 0.58333  0.91667  0.25000  Biso   1.000  Ga
  N46      1.0000 0.50000  0.75000  0.31210  Biso   1.000  N
  Ga47     1.0000 0.50000  0.75000  0.50000  Biso   1.000  Ga
  N47      1.0000 0.58333  0.91667  0.56210  Biso   1.000  N
  Ga48     1.0000 0.58333  0.91667  0.75000  Biso   1.000  Ga
  N48      1.0000 0.50000  0.75000  0.81210  Biso   1.000  N
  Ga49     1.0000 0.75000  0.00000  0.00000  Biso   1.000  Ga
  N49      1.0000 0.83333  0.16667  0.06210  Biso   1.000  N
  Ga50     1.0000 0.83333  0.16667  0.25000  Biso   1.000  Ga
  N50      1.0000 0.75000  0.00000  0.31210  Biso   1.000  N
  Ga51     1.0000 0.75000  0.00000  0.50000  Biso   1.000  Ga
  N51      1.0000 0.83333  0.16667  0.56210  Biso   1.000  N
  Ga52     1.0000 0.83333  0.16667  0.75000  Biso   1.000  Ga
  N52      1.0000 0.75000  0.00000  0.81210  Biso   1.000  N
  Ga53     1.0000 0.75000  0.25000  0.00000  Biso   1.000  Ga
  N53      1.0000 0.83333  0.41667  0.06210  Biso   1.000  N
  Ga54     1.0000 0.83333  0.41667  0.25000  Biso   1.000  Ga
  N54      1.0000 0.75000  0.25000  0.31210  Biso   1.000  N
  Ga55     1.0000 0.75000  0.25000  0.50000  Biso   1.000  Ga
  N55      1.0000 0.83333  0.41667  0.56210  Biso   1.000  N
  Ga56     1.0000 0.83333  0.41667  0.75000  Biso   1.000  Ga
  N56      1.0000 0.75000  0.25000  0.81210  Biso   1.000  N
  Ga57     1.0000 0.75000  0.50000  0.00000  Biso   1.000  Ga
  N57      1.0000 0.83333  0.66667  0.06210  Biso   1.000  N
  Ga58     1.0000 0.83333  0.66667  0.25000  Biso   1.000  Ga
  N58      1.0000 0.75000  0.50000  0.31210  Biso   1.000  N
  Ga59     1.0000 0.75000  0.50000  0.50000  Biso   1.000  Ga
  N59      1.0000 0.83333  0.66667  0.56210  Biso   1.000  N
  Ga60     1.0000 0.83333  0.66667  0.75000  Biso   1.000  Ga
  N60      1.0000 0.75000  0.50000  0.81210  Biso   1.000  N
  Ga61     1.0000 0.75000  0.75000  0.00000  Biso   1.000  Ga
  N61      1.0000 0.83333  0.91667  0.06210  Biso   1.000  N
  Ga62     1.0000 0.83333  0.91667  0.25000  Biso   1.000  Ga
  N62      1.0000 0.75000  0.75000  0.31210  Biso   1.000  N
  Ga63     1.0000 0.75000  0.75000  0.50000  Biso   1.000  Ga
  N63      1.0000 0.83333  0.91667  0.56210  Biso   1.000  N
  Ga64     1.0000 0.83333  0.91667  0.75000  Biso   1.000  Ga
  N64      1.0000 0.75000  0.75000  0.81210  Biso   1.000  N
