data_image0
_cell_length_a       3.186
_cell_length_b       3.186
_cell_length_c       20.744
_cell_angle_alpha    90
_cell_angle_beta     90
_cell_angle_gamma    120

_symmetry_space_group_name_H-M    "P 1"
_symmetry_int_tables_number       1

loop_
  _symmetry_equiv_pos_as_xyz
  'x, y, z'

loop_
  _atom_site_label
  _atom_site_occupancy
  _atom_site_fract_x
  _atom_site_fract_y
  _atom_site_fract_z
  _atom_site_thermal_displace_type
  _atom_site_B_iso_or_equiv
  _atom_site_type_symbol
  Ga1      1.0000 0.00000  0.00000  0.00000  Biso   1.000  Ga
  N1       1.0000 0.33333  0.66667  0.03105  Biso   1.000  N
  Ga2      1.0000 0.33333  0.66667  0.12500  Biso   1.000  Ga
  N2       1.0000 0.00000  0.00000  0.15605  Biso   1.000  N
  Ga3      1.0000 0.00000  0.00000  0.25000  Biso   1.000  Ga
  N3       1.0000 0.33333  0.66667  0.28105  Biso   1.000  N
  Ga4      1.0000 0.33333  0.66667  0.37500  Biso   1.000  Ga
  N4       1.0000 0.00000  0.00000  0.40605  Biso   1.000  N
  Ga5      1.0000 0.00000  0.00000  0.50000  Biso   1.000  Ga
  N5       1.0000 0.33333  0.66667  0.53105  Biso   1.000  N
  Ga6      1.0000 0.33333  0.66667  0.62500  Biso   1.000  Ga
  N6       1.0000 0.00000  0.00000  0.65605  Biso   1.000  N
  Ga7      1.0000 0.00000  0.00000  0.75000  Biso   1.000  Ga
  N7       1.0000 0.33333  0.66667  0.78105  Biso   1.000  N
  Ga8      1.0000 0.33333  0.66667  0.87500  Biso   1.000  Ga
  N8       1.0000 0.00000  0.00000  0.90605  Biso   1.000  N
